!- Linux Line endings 

VERSION,
    9.1;                      !- Version Identifier

Simulationcontrol,
    Yes,                      !- Do Zone Sizing Calculation
    Yes,                      !- Do System Sizing Calculation
    Yes,                      !- Do Plant Sizing Calculation
    No,                       !- Run Simulation for Sizing Periods
    No,                       !- Run Simulation for Weather File Run Periods
    Yes,                      !- Do HVAC Sizing Simulation for Sizing Periods
    1;                        !- Maximum Number of HVAC Sizing Simulation Passes

Building,
    TestShoebox,              !- Name
    168.2812,                 !- North Axis
    Country,                  !- Terrain
    0.04,                     !- Loads Convergence Tolerance Value
    0.4,                      !- Temperature Convergence Tolerance Value
    FullInteriorAndExterior,    !- Solar Distribution
    100,                      !- Maximum Number of Warmup Days
    8;                        !- Minimum Number of Warmup Days

Timestep,
    4.0;                      !- Number of Timesteps per Hour

Convergencelimits,
    5,                        !- Minimum System Timestep
    25,                       !- Maximum HVAC Iterations
    3,                        !- Minimum Plant Iterations
    10;                       !- Maximum Plant Iterations

Site:Location,
    Seattle Seattle Tacoma Intl A_WA_USA Design_Conditions,    !- Name
    47.47,                    !- Latitude
    -122.32,                  !- Longitude
    -8.0,                     !- Time Zone
    122.0;                    !- Elevation

SizingPeriod:DesignDay,
    Seattle Seattle Tacoma Intl A Ann Clg .4% Condns DB=>MWB,    !- Name
    8,                        !- Month
    21,                       !- Day of Month
    SummerDesignDay,          !- Day Type
    29.4,                     !- Maximum DryBulb Temperature
    10.4,                     !- Daily DryBulb Temperature Range
    DefaultMultipliers,       !- DryBulb Temperature Range Modifier Type
    ,                         !- DryBulb Temperature Range Modifier Day Schedule Name
    Wetbulb,                  !- Humidity Condition Type
    18.3,                     !- Wetbulb or DewPoint at Maximum DryBulb
    ,                         !- Humidity Condition Day Schedule Name
    ,                         !- Humidity Ratio at Maximum DryBulb
    ,                         !- Enthalpy at Maximum DryBulb
    ,                         !- Daily WetBulb Temperature Range
    99868.0,                  !- Barometric Pressure
    4.2,                      !- Wind Speed
    350.0,                    !- Wind Direction
    No,                       !- Rain Indicator
    No,                       !- Snow Indicator
    No,                       !- Daylight Saving Time Indicator
    ASHRAETau,                !- Solar Model Indicator
    ,                         !- Beam Solar Day Schedule Name
    ,                         !- Diffuse Solar Day Schedule Name
    0.352,                    !- ASHRAE Clear Sky Optical Depth for Beam Irradiance taub
    2.561;                    !- ASHRAE Clear Sky Optical Depth for Diffuse Irradiance taud

Runperiod,
    RunPeriod_1,              !- Name
    1,                        !- Begin Month
    1,                        !- Begin Day of Month
    ,                         !- Begin Year
    12,                       !- End Month
    31,                       !- End Day of Month
    ,                         !- End Year
    Wednesday,                !- Day of Week for Start Day
    No,                       !- Use Weather File Holidays and Special Days
    No,                       !- Use Weather File Daylight Saving Period
    No,                       !- Apply Weekend Holiday Rule
    Yes,                      !- Use Weather File Rain Indicators
    Yes,                      !- Use Weather File Snow Indicators
    No;                       !- Treat Weather as Actual

Site:Groundtemperature:Buildingsurface,
    20.133,                   !- January Ground Temperature
    20.114,                   !- February Ground Temperature
    20.098,                   !- March Ground Temperature
    20.195,                   !- April Ground Temperature
    20.555,                   !- May Ground Temperature
    20.958,                   !- June Ground Temperature
    22.367,                   !- July Ground Temperature
    22.7,                     !- August Ground Temperature
    22.775,                   !- September Ground Temperature
    21.957,                   !- October Ground Temperature
    20.592,                   !- November Ground Temperature
    20.216;                   !- December Ground Temperature

Scheduletypelimits,
    Temperature,              !- Name
    -60.0,                    !- Lower Limit Value
    200.0,                    !- Upper Limit Value
    Continuous,               !- Numeric Type
    Dimensionless;            !- Unit Type

Scheduletypelimits,
    Control Type,             !- Name
    0.0,                      !- Lower Limit Value
    4.0,                      !- Upper Limit Value
    Discrete,                 !- Numeric Type
    Dimensionless;            !- Unit Type

Scheduletypelimits,
    Fraction,                 !- Name
    0.0,                      !- Lower Limit Value
    1.0,                      !- Upper Limit Value
    Continuous,               !- Numeric Type
    Dimensionless;            !- Unit Type

Scheduletypelimits,
    Any Number,               !- Name
    ,                         !- Lower Limit Value
    ,                         !- Upper Limit Value
    ,                         !- Numeric Type
    Dimensionless;            !- Unit Type

Scheduletypelimits,
    On/Off,                   !- Name
    0.0,                      !- Lower Limit Value
    1.0,                      !- Upper Limit Value
    Discrete,                 !- Numeric Type
    Dimensionless;            !- Unit Type

Scheduletypelimits,
    Humidity,                 !- Name
    0.0,                      !- Lower Limit Value
    100.0,                    !- Upper Limit Value
    Continuous,               !- Numeric Type
    Dimensionless;            !- Unit Type

Schedule:Compact,
    Sch_RAD_zone_Radiant_System_Radiant_Availability,    !- Name
    Temperature,              !- Schedule Type Limits Name
    Through: 12/31,           !- Field 1
    For: AllDays,             !- Field 2
    Until: 01:00,             !- Field 3
    0.00000000,               !- Field 4
    Until: 02:00,             !- Field 5
    0.00000000,               !- Field 6
    Until: 03:00,             !- Field 7
    0.00000000,               !- Field 8
    Until: 04:00,             !- Field 9
    0.00000000,               !- Field 10
    Until: 05:00,             !- Field 11
    0.00000000,               !- Field 12
    Until: 06:00,             !- Field 13
    1.00000000,               !- Field 14
    Until: 07:00,             !- Field 15
    1.00000000,               !- Field 16
    Until: 08:00,             !- Field 17
    1.00000000,               !- Field 18
    Until: 09:00,             !- Field 19
    1.00000000,               !- Field 20
    Until: 10:00,             !- Field 21
    1.00000000,               !- Field 22
    Until: 11:00,             !- Field 23
    1.00000000,               !- Field 24
    Until: 12:00,             !- Field 25
    1.00000000,               !- Field 26
    Until: 13:00,             !- Field 27
    1.00000000,               !- Field 28
    Until: 14:00,             !- Field 29
    1.00000000,               !- Field 30
    Until: 15:00,             !- Field 31
    1.00000000,               !- Field 32
    Until: 16:00,             !- Field 33
    0.00000000,               !- Field 34
    Until: 17:00,             !- Field 35
    0.00000000,               !- Field 36
    Until: 18:00,             !- Field 37
    0.00000000,               !- Field 38
    Until: 19:00,             !- Field 39
    0.00000000,               !- Field 40
    Until: 20:00,             !- Field 41
    0.00000000,               !- Field 42
    Until: 21:00,             !- Field 43
    0.00000000,               !- Field 44
    Until: 22:00,             !- Field 45
    0.00000000,               !- Field 46
    Until: 23:00,             !- Field 47
    0.00000000,               !- Field 48
    Until: 24:00,             !- Field 49
    0.00000000;               !- Field 50

Schedule:Compact,
    Sch_AirLoop_SAT_Heat,     !- Name
    Temperature,              !- Schedule Type Limits Name
    Through: 12/31,           !- Field 1
    For: AllDays,             !- Field 2
    Until: 24:00,             !- Field 3
    15.00000000;              !- Field 4

Schedule:Compact,
    Sch_AirLoop_SAT_Cool,     !- Name
    Temperature,              !- Schedule Type Limits Name
    Through: 12/31,           !- Field 1
    For: AllDays,             !- Field 2
    Until: 24:00,             !- Field 3
    21.00000000;              !- Field 4

Schedule:Compact,
    Sch_AirLoop_SAT_Max_huRatio,    !- Name
    Fraction,                 !- Schedule Type Limits Name
    Through: 12/31,           !- Field 1
    For: AllDays,             !- Field 2
    Until: 24:00,             !- Field 3
    0.01380000;               !- Field 4

Schedule:Compact,
    Sch_ClgSetP,              !- Name
    Temperature,              !- Schedule Type Limits Name
    Through: 12/31,           !- Field 1
    For: AllDays,             !- Field 2
    Until: 07:00,             !- Field 3
    26.00000000,              !- Field 4
    Until: 18:00,             !- Field 5
    26.00000000,              !- Field 6
    Until: 24:00,             !- Field 7
    26.00000000;              !- Field 8

Schedule:Compact,
    Sch_HtgSetP,              !- Name
    Temperature,              !- Schedule Type Limits Name
    Through: 12/31,           !- Field 1
    For: AllDays,             !- Field 2
    Until: 07:00,             !- Field 3
    22.30000000,              !- Field 4
    Until: 18:00,             !- Field 5
    22.30000000,              !- Field 6
    Until: 24:00,             !- Field 7
    22.30000000;              !- Field 8

Schedule:Compact,
    Sch_Bldg_Occ,             !- Name
    Fraction,                 !- Schedule Type Limits Name
    Through: 12/31,           !- Field 1
    For: SummerDesignDay WinterDesignDay Weekdays,    !- Field 2
    Until: 01:00,             !- Field 3
    0.00000000,               !- Field 4
    Until: 02:00,             !- Field 5
    0.00000000,               !- Field 6
    Until: 03:00,             !- Field 7
    0.00000000,               !- Field 8
    Until: 04:00,             !- Field 9
    0.00000000,               !- Field 10
    Until: 05:00,             !- Field 11
    0.00000000,               !- Field 12
    Until: 06:00,             !- Field 13
    0.00000000,               !- Field 14
    Until: 07:00,             !- Field 15
    0.10000000,               !- Field 16
    Until: 08:00,             !- Field 17
    0.20000000,               !- Field 18
    Until: 09:00,             !- Field 19
    0.95000000,               !- Field 20
    Until: 10:00,             !- Field 21
    0.95000000,               !- Field 22
    Until: 11:00,             !- Field 23
    0.95000000,               !- Field 24
    Until: 12:00,             !- Field 25
    0.95000000,               !- Field 26
    Until: 13:00,             !- Field 27
    0.50000000,               !- Field 28
    Until: 14:00,             !- Field 29
    0.95000000,               !- Field 30
    Until: 15:00,             !- Field 31
    0.95000000,               !- Field 32
    Until: 16:00,             !- Field 33
    0.95000000,               !- Field 34
    Until: 17:00,             !- Field 35
    0.95000000,               !- Field 36
    Until: 18:00,             !- Field 37
    0.30000000,               !- Field 38
    Until: 19:00,             !- Field 39
    0.10000000,               !- Field 40
    Until: 20:00,             !- Field 41
    0.10000000,               !- Field 42
    Until: 21:00,             !- Field 43
    0.10000000,               !- Field 44
    Until: 22:00,             !- Field 45
    0.10000000,               !- Field 46
    Until: 23:00,             !- Field 47
    0.05000000,               !- Field 48
    Until: 24:00,             !- Field 49
    0.05000000,               !- Field 50
    For: AllOtherDays,        !- Field 51
    Until: 24:00,             !- Field 52
    0.00000000;               !- Field 53

Schedule:Compact,
    Sch_Bldg_Light,           !- Name
    Fraction,                 !- Schedule Type Limits Name
    Through: 12/31,           !- Field 1
    For: SummerDesignDay WinterDesignDay Weekdays,    !- Field 2
    Until: 01:00,             !- Field 3
    0.05000000,               !- Field 4
    Until: 02:00,             !- Field 5
    0.05000000,               !- Field 6
    Until: 03:00,             !- Field 7
    0.05000000,               !- Field 8
    Until: 04:00,             !- Field 9
    0.05000000,               !- Field 10
    Until: 05:00,             !- Field 11
    0.05000000,               !- Field 12
    Until: 06:00,             !- Field 13
    0.10000000,               !- Field 14
    Until: 07:00,             !- Field 15
    0.09056011,               !- Field 16
    Until: 08:00,             !- Field 17
    0.27168034,               !- Field 18
    Until: 09:00,             !- Field 19
    0.81504103,               !- Field 20
    Until: 10:00,             !- Field 21
    0.81504103,               !- Field 22
    Until: 11:00,             !- Field 23
    0.81504103,               !- Field 24
    Until: 12:00,             !- Field 25
    0.81504103,               !- Field 26
    Until: 13:00,             !- Field 27
    0.81504103,               !- Field 28
    Until: 14:00,             !- Field 29
    0.81504103,               !- Field 30
    Until: 15:00,             !- Field 31
    0.81504103,               !- Field 32
    Until: 16:00,             !- Field 33
    0.81504103,               !- Field 34
    Until: 17:00,             !- Field 35
    0.81504103,               !- Field 36
    Until: 18:00,             !- Field 37
    0.45280057,               !- Field 38
    Until: 19:00,             !- Field 39
    0.27168034,               !- Field 40
    Until: 20:00,             !- Field 41
    0.27168034,               !- Field 42
    Until: 21:00,             !- Field 43
    0.18112023,               !- Field 44
    Until: 22:00,             !- Field 45
    0.18112023,               !- Field 46
    Until: 23:00,             !- Field 47
    0.09056011,               !- Field 48
    Until: 24:00,             !- Field 49
    0.04528006,               !- Field 50
    For: AllOtherDays,        !- Field 51
    Until: 24:00,             !- Field 52
    0.05000000;               !- Field 53

Schedule:Compact,
    Sch_Bldg_Equip,           !- Name
    Fraction,                 !- Schedule Type Limits Name
    Through: 12/31,           !- Field 1
    For: SummerDesignDay WinterDesignDay Weekdays,    !- Field 2
    Until: 01:00,             !- Field 3
    0.38750000,               !- Field 4
    Until: 02:00,             !- Field 5
    0.38750000,               !- Field 6
    Until: 03:00,             !- Field 7
    0.38750000,               !- Field 8
    Until: 04:00,             !- Field 9
    0.38750000,               !- Field 10
    Until: 05:00,             !- Field 11
    0.38750000,               !- Field 12
    Until: 06:00,             !- Field 13
    0.38750000,               !- Field 14
    Until: 07:00,             !- Field 15
    0.38750000,               !- Field 16
    Until: 08:00,             !- Field 17
    0.38750000,               !- Field 18
    Until: 09:00,             !- Field 19
    0.85422894,               !- Field 20
    Until: 10:00,             !- Field 21
    0.85422894,               !- Field 22
    Until: 11:00,             !- Field 23
    0.85422894,               !- Field 24
    Until: 12:00,             !- Field 25
    0.85422894,               !- Field 26
    Until: 13:00,             !- Field 27
    0.75931461,               !- Field 28
    Until: 14:00,             !- Field 29
    0.85422894,               !- Field 30
    Until: 15:00,             !- Field 31
    0.85422894,               !- Field 32
    Until: 16:00,             !- Field 33
    0.85422894,               !- Field 34
    Until: 17:00,             !- Field 35
    0.85422894,               !- Field 36
    Until: 18:00,             !- Field 37
    0.47457163,               !- Field 38
    Until: 19:00,             !- Field 39
    0.37965731,               !- Field 40
    Until: 20:00,             !- Field 41
    0.38750000,               !- Field 42
    Until: 21:00,             !- Field 43
    0.38750000,               !- Field 44
    Until: 22:00,             !- Field 45
    0.38750000,               !- Field 46
    Until: 23:00,             !- Field 47
    0.38750000,               !- Field 48
    Until: 24:00,             !- Field 49
    0.38750000,               !- Field 50
    For: AllOtherDays,        !- Field 51
    Until: 24:00,             !- Field 52
    0.30000000;               !- Field 53

Schedule:Compact,
    Sch_HVAC,                 !- Name
    On/Off,                   !- Schedule Type Limits Name
    Through: 12/31,           !- Field 1
    For: SummerDesignDay WinterDesignDay,    !- Field 2
    Until: 06:45,             !- Field 3
    0.00000000,               !- Field 4
    Until: 18:00,             !- Field 5
    1.00000000,               !- Field 6
    Until: 24:00,             !- Field 7
    0.00000000,               !- Field 8
    For: Weekdays,            !- Field 9
    Until: 06:45,             !- Field 10
    0.00000000,               !- Field 11
    Until: 18:00,             !- Field 12
    1.00000000,               !- Field 13
    Until: 24:00,             !- Field 14
    0.00000000,               !- Field 15
    For: AllOtherDays,        !- Field 16
    Until: 24:00,             !- Field 17
    0.00000000;               !- Field 18

Schedule:Compact,
    Sch_HVAC_coil,            !- Name
    On/Off,                   !- Schedule Type Limits Name
    Through: 12/31,           !- Field 1
    For: SummerDesignDay WinterDesignDay,    !- Field 2
    Until: 07:00,             !- Field 3
    0.00000000,               !- Field 4
    Until: 18:00,             !- Field 5
    1.00000000,               !- Field 6
    Until: 24:00,             !- Field 7
    0.00000000,               !- Field 8
    For: Weekdays,            !- Field 9
    Until: 07:00,             !- Field 10
    0.00000000,               !- Field 11
    Until: 18:00,             !- Field 12
    1.00000000,               !- Field 13
    Until: 24:00,             !- Field 14
    0.00000000,               !- Field 15
    For: AllOtherDays,        !- Field 16
    Until: 24:00,             !- Field 17
    0.00000000;               !- Field 18

Schedule:Compact,
    Sch_Plant,                !- Name
    On/Off,                   !- Schedule Type Limits Name
    Through: 12/31,           !- Field 1
    For: AllDays,             !- Field 2
    Until: 24:00,             !- Field 3
    1.00000000;               !- Field 4

Schedule:Compact,
    Sch_HVAC_Off,             !- Name
    On/Off,                   !- Schedule Type Limits Name
    Through: 12/31,           !- Field 1
    For: AllDays,             !- Field 2
    Until: 24:00,             !- Field 3
    0.00000000;               !- Field 4

Schedule:Compact,
    Sch_Infiltration,         !- Name
    Fraction,                 !- Schedule Type Limits Name
    Through: 12/31,           !- Field 1
    For: SummerDesignDay WinterDesignDay,    !- Field 2
    Until: 06:45,             !- Field 3
    1.00000000,               !- Field 4
    Until: 18:00,             !- Field 5
    0.25000000,               !- Field 6
    Until: 24:00,             !- Field 7
    1.00000000,               !- Field 8
    For: Weekdays,            !- Field 9
    Until: 06:45,             !- Field 10
    1.00000000,               !- Field 11
    Until: 18:00,             !- Field 12
    0.25000000,               !- Field 13
    Until: 24:00,             !- Field 14
    1.00000000,               !- Field 15
    For: AllOtherDays,        !- Field 16
    Until: 24:00,             !- Field 17
    1.00000000;               !- Field 18

Schedule:Compact,
    Sch_Slab_Ctrl_Avg_Window_N,    !- Name
    Any Number,               !- Schedule Type Limits Name
    Through: 12/31,           !- Field 1
    For: AllDays,             !- Field 2
    Until: 24:00,             !- Field 3
    1.00000000;               !- Field 4

Schedule:Compact,
    Sch_Work_Eff,             !- Name
    Fraction,                 !- Schedule Type Limits Name
    Through: 12/31,           !- Field 1
    For: AllDays,             !- Field 2
    Until: 24:00,             !- Field 3
    0.00000000;               !- Field 4

Schedule:Compact,
    Sch_Clo,                  !- Name
    Fraction,                 !- Schedule Type Limits Name
    Through: 12/31,           !- Field 1
    For: AllDays,             !- Field 2
    Until: 24:00,             !- Field 3
    0.57000000;               !- Field 4

Schedule:Compact,
    Sch_Air_Velo,             !- Name
    Fraction,                 !- Schedule Type Limits Name
    Through: 12/31,           !- Field 1
    For: AllDays,             !- Field 2
    Until: 24:00,             !- Field 3
    0.10000000;               !- Field 4

Schedule:Compact,
    Sch_OA_Fraction,          !- Name
    Fraction,                 !- Schedule Type Limits Name
    Through: 12/31,           !- Field 1
    For: SummerDesignDay WinterDesignDay,    !- Field 2
    Until: 07:00,             !- Field 3
    0.00000000,               !- Field 4
    Until: 18:00,             !- Field 5
    1.00000000,               !- Field 6
    Until: 24:00,             !- Field 7
    0.00000000,               !- Field 8
    For: Weekdays,            !- Field 9
    Until: 07:00,             !- Field 10
    0.00000000,               !- Field 11
    Until: 18:00,             !- Field 12
    1.00000000,               !- Field 13
    Until: 24:00,             !- Field 14
    0.00000000,               !- Field 15
    For: AllOtherDays,        !- Field 16
    Until: 24:00,             !- Field 17
    0.00000000;               !- Field 18

Schedule:Constant,
    Sch_Radiant_ClgSetP,      !- Name
    Temperature,              !- Schedule Type Limits Name
    0.0;                      !- Hourly Value

Schedule:Constant,
    Sch_Radiant_HtgSetP,      !- Name
    Temperature,              !- Schedule Type Limits Name
    -60.0;                    !- Hourly Value

Schedule:Constant,
    Sch_Slab_CSP,             !- Name
    Temperature,              !- Schedule Type Limits Name
    25.0;                     !- Hourly Value

Schedule:Constant,
    Sch_Slab_HSP,             !- Name
    Temperature,              !- Schedule Type Limits Name
    21.0;                     !- Hourly Value

Schedule:Constant,
    Sch_CSP_Error,            !- Name
    Temperature,              !- Schedule Type Limits Name
    0.0;                      !- Hourly Value

Schedule:Constant,
    Sch_HSP_Error,            !- Name
    Temperature,              !- Schedule Type Limits Name
    0.0;                      !- Hourly Value

Schedule:Constant,
    Sch_Oat_Running_Mean,     !- Name
    Temperature,              !- Schedule Type Limits Name
    20.0;                     !- Hourly Value

Schedule:Constant,
    Sch_Avg_Ctrl_Temp,        !- Name
    Temperature,              !- Schedule Type Limits Name
    20.0;                     !- Hourly Value

Schedule:Constant,
    Sch_ActivityLevel,        !- Name
    Any Number,               !- Schedule Type Limits Name
    126.0;                    !- Hourly Value

Schedule:Constant,
    Sch_ZoneControl_Type,     !- Name
    Control Type,             !- Schedule Type Limits Name
    4.0;                      !- Hourly Value

Schedule:Constant,
    Sch_ChW_MainLoop_Temp,    !- Name
    Temperature,              !- Schedule Type Limits Name
    6.973334657671235;        !- Hourly Value

Schedule:Constant,
    Sch_Radiant_Water_Flow,    !- Name
    Any Number,               !- Schedule Type Limits Name
    0.000111076;              !- Hourly Value

Schedule:Constant,
    Sch_HW_MainLoop_Temp,     !- Name
    Temperature,              !- Schedule Type Limits Name
    30.0;                     !- Hourly Value

Material,
    RAD_Continuous_Insulation,    !- Name
    MediumRough,              !- Roughness
    0.043924842,              !- Thickness
    0.032,                    !- Conductivity
    72.0,                     !- Density
    1680.0,                   !- Specific Heat
    0.9,                      !- Thermal Absorptance
    0.7,                      !- Solar Absorptance
    0.7;                      !- Visible Absorptance

Material,
    RAD_Stucco_22mm,          !- Name
    Smooth,                   !- Roughness
    0.022225,                 !- Thickness
    0.72,                     !- Conductivity
    1856.0,                   !- Density
    840.0,                    !- Specific Heat
    0.9,                      !- Thermal Absorptance
    0.7,                      !- Solar Absorptance
    0.7;                      !- Visible Absorptance

Material,
    RAD_Gypsum_Board_13mm,    !- Name
    Smooth,                   !- Roughness
    0.0127,                   !- Thickness
    0.16,                     !- Conductivity
    800.0,                    !- Density
    1090.0,                   !- Specific Heat
    0.9,                      !- Thermal Absorptance
    0.7,                      !- Solar Absorptance
    0.7;                      !- Visible Absorptance

Material,
    RAD_Floor_Material,       !- Name
    MediumRough,              !- Roughness
    0.2603,                   !- Thickness
    1.8,                      !- Conductivity
    2240.0,                   !- Density
    900.0,                    !- Specific Heat
    0.9,                      !- Thermal Absorptance
    0.7,                      !- Solar Absorptance
    0.7;                      !- Visible Absorptance

Material,
    RAD_Acoustic_Ceiling_13mm,    !- Name
    MediumSmooth,             !- Roughness
    0.0127,                   !- Thickness
    0.057,                    !- Conductivity
    288.0,                    !- Density
    1339.0,                   !- Specific Heat
    0.9,                      !- Thermal Absorptance
    0.7,                      !- Solar Absorptance
    0.7;                      !- Visible Absorptance

Material,
    RAD_Expanded_Polystyrene_Insulation_59mm,    !- Name
    MediumRough,              !- Roughness
    0.059,                    !- Thickness
    0.03,                     !- Conductivity
    15.0,                     !- Density
    1500.0,                   !- Specific Heat
    0.9,                      !- Thermal Absorptance
    0.7,                      !- Solar Absorptance
    0.7;                      !- Visible Absorptance

Material,
    RAD_Wood_150mm,           !- Name
    MediumSmooth,             !- Roughness
    0.15,                     !- Thickness
    0.12,                     !- Conductivity
    540.0,                    !- Density
    1210.0,                   !- Specific Heat
    0.9,                      !- Thermal Absorptance
    0.7,                      !- Solar Absorptance
    0.7;                      !- Visible Absorptance

Material,
    RAD_MassLayer_Wood,       !- Name
    MediumSmooth,             !- Roughness
    0.154320987654,           !- Thickness
    0.12,                     !- Conductivity
    540.0,                    !- Density
    1210.0,                   !- Specific Heat
    0.9,                      !- Thermal Absorptance
    0.7,                      !- Solar Absorptance
    0.7;                      !- Visible Absorptance

Material,
    RAD_Expanded_Polystyrene_Insulation_Layer_1_0.0264mm,    !- Name
    MediumRough,              !- Roughness
    0.0264,                   !- Thickness
    0.03,                     !- Conductivity
    15.0,                     !- Density
    1500.0,                   !- Specific Heat
    0.9,                      !- Thermal Absorptance
    0.7,                      !- Solar Absorptance
    0.7;                      !- Visible Absorptance

Material,
    RAD_Floor_Covering_Layer_1_0.077RSI,    !- Name
    MediumRough,              !- Roughness
    0.00462,                  !- Thickness
    0.06,                     !- Conductivity
    288.0,                    !- Density
    1380.0,                   !- Specific Heat
    0.9,                      !- Thermal Absorptance
    0.7,                      !- Solar Absorptance
    0.7;                      !- Visible Absorptance

Material,
    RAD_Screed_Layer_1_0.1326mm,    !- Name
    MediumRough,              !- Roughness
    0.1326,                   !- Thickness
    0.41,                     !- Conductivity
    1200.0,                   !- Density
    840.0,                    !- Specific Heat
    0.9,                      !- Thermal Absorptance
    0.7,                      !- Solar Absorptance
    0.7;                      !- Visible Absorptance

Material,
    RAD_Concrete_Normal_Wgt_Layer_1_0.2603mm,    !- Name
    MediumRough,              !- Roughness
    0.2603,                   !- Thickness
    1.8,                      !- Conductivity
    2240.0,                   !- Density
    900.0,                    !- Specific Heat
    0.9,                      !- Thermal Absorptance
    0.7,                      !- Solar Absorptance
    0.7;                      !- Visible Absorptance

Material:Nomass,
    RAD_Metal_Frame_with_Fiberglass_Insulation_152mm,    !- Name
    MediumSmooth,             !- Roughness
    1.3,                      !- Thermal Resistance